FoamFile
{
    version     2.0;
    format      ascii;
    arch        "LSB;label=32;scalar=64";
    class       volScalarField;
    location    "0";
    object      alphat;
}
// * * * * * * * * * * * * * * * * * * * * * * * * * * * * * * * * * * * * * //

dimensions      [1 -1 -1 0 0 0 0];

internalField   uniform 3.072;

boundaryField
{
cav_up_wall
{
        type            compressible::alphatWallFunction;
        value           uniform 1;
}

cav_wall_down_stream
{
        type            compressible::alphatWallFunction;
        value           uniform 1;
}

cav_wall_up_stream
{
        type            compressible::alphatWallFunction;
        value           uniform 1;
}

inlet
{
    	type 		calculated;
	value		uniform 1;
}

outlet
{
    	type 		calculated;
	value		uniform 1
}

pylon
{
        type            compressible::alphatWallFunction;
        value           uniform 1;
}

side_wall
{
        type            compressible::alphatWallFunction;
        value           uniform 1;
}

sym
{
    type symmetry;
}

}


