FoamFile
{
    version     2.0;
    format      ascii;
    arch        "LSB;label=32;scalar=64";
    class       volScalarField;
    location    "0";
    object      nut;
}
// * * * * * * * * * * * * * * * * * * * * * * * * * * * * * * * * * * * * * //

dimensions      [0 2 -1 0 0 0 0];

internalField   uniform 2.15;

boundaryField
{

    cav_up_wall 
    {
        type            nutkWallFunction;
        value           uniform 2.15;
    }
    cav_wall_down_stream
    {
        type            nutkWallFunction;
        value           uniform 2.15;
    }
    inlet
    {
        type            calculated;
        value           uniform 0;
    }
    outlet
    {
        type            calculated;
        value           uniform 0;
    }
    cav_wall_up_stream
    {
        type            nutkWallFunction;
        value           uniform 2.15;
    }
    pylon
    {
        type            nutkWallFunction;
        value           uniform 2.15;
    }
    side_wall
    {
        type            nutkWallFunction;
        value           uniform 2.15;
    }
    sym
    {
        type            symmetry;
    }
}
