/*--------------------------------*- C++ -*----------------------------------*\
| =========                 |                                                 |
| \\      /  F ield         | OpenFOAM: The Open Source CFD Toolbox           |
|  \\    /   O peration     | Version:  v1706                                 |
|   \\  /    A nd           | Web:      www.OpenFOAM.org                      |
|    \\/     M anipulation  |                                                 |
\*---------------------------------------------------------------------------*/
FoamFile
{
    version     2.0;
    format      ascii;
    class       volScalarField;
    object      p;
}
// * * * * * * * * * * * * * * * * * * * * * * * * * * * * * * * * * * * * * //

#include "include/initialConditions"

dimensions      [1 -1 -2 0 0 0 0];

internalField   uniform $pressureField;

boundaryField
{
    cav_up_wall
    {
        type            zeroGradient;
    }
    cav_wall_down_stream
    {
        type            zeroGradient;
    }
    inlet
    {
        type            fixedValue;
        value           uniform $pressureInlet;
    }
    outlet
    {
        type            zeroGradient;
    }
    cav_wall_up_stream
    {
        type            zeroGradient;
    }
    pylon 
    {
        type            zeroGradient;
    }
    side_wall
    {
        type            zeroGradient;
    }
    sym
    {
        type            symmetry;
    }

}

// ************************************************************************* //
