/*--------------------------------*- C++ -*----------------------------------*\
| =========                 |                                                 |
| \\      /  F ield         | OpenFOAM: The Open Source CFD Toolbox           |
|  \\    /   O peration     | Version:  v1706                                 |
|   \\  /    A nd           | Web:      www.OpenFOAM.org                      |
|    \\/     M anipulation  |                                                 |
\*---------------------------------------------------------------------------*/
FoamFile
{
    version     2.0;
    format      ascii;
    class       dictionary;
    object      initialConditions;
}

// * * * * * * * * * * * * * * * * * * * * * * * * * * * * * * * * * * * * * //

Ttr       152;
Tve       $Ttr;
TveAtom   0;
Tcone     0;

pressureInlet  37408.66;
pressureField  $pressureInlet;

rhoInlet       .857;

velocityInlet  545;
velocityField  ($velocityInlet 0 0);
velocityWall   (0 0 0);

Y_N2      1.0;
Y_O2      0;
Y_NO      0;
Y_N       0;
Y_O       0;
Y_N2+     0;
Y_O2+     0;
Y_NO+     0;
Y_N+      0;
Y_O+      0;
Y_e-      0;
  


// * * * * * * * * * * * * * * * * * * * * * * * * * * * * * * * * * * * * * //
