FoamFile
{
    version     2.0;
    format      ascii;
    class       dictionary;
    object      blockMeshDict;
}
// * * * * * * * * * * * * * * * * * * * * * * * * * * * * * * * * * * * * * //


convertToMeters 0.001;

z		1;

vertices
(
 (-27 9 0)              // 0
 (27 9 0)               // 1
 (27 27 0)              // 2 
 (-27 27 0)             // 3
 (-27 9 $z)             // 4
 (27 9 $z)              // 5
 (27 27 $z)             // 6
 (-27 27 $z)            // 7
 (54 9 0)               // 8
 (54 27 0)              // 9
 (54 9 $z)              // 10
 (54 27 $z)             // 11
 (27 0 0)               // 12
 (54 0 0)               // 13
 (27 0 $z)              // 14
 (54 0 $z)              // 15
 (81 9 0)               // 16
 (81 27 0)              // 17
 (81 9 $z)              // 18
 (81 27 $z)             // 19
 (-33 9 0)		// 20
 (-27 9 0)		// 21
 (-27 27 0)		// 22
 (-33 27 0)		// 23
 (-33 9 $z)             // 24
 (-27 9 $z)             // 25
 (-27 27 $z)            // 26
 (-33 27 $z)            // 27
 (-27 33 0)		// 28
 (-33 33 0)		// 29
 (-27 33 $z)		// 30
 (-33 33 $z)		// 31
 (-22 29 0)		// 32
 (-22 33 0)		// 33
 (-22 29 $z)		// 34 
 (-22 33 $z)		// 35
 (-33 3 0)		// 36
 (-27 3 0)		// 37
 (-33 3 $z)		// 38
 (-27 3 $z)		// 39 
 (-22 3 0)		// 40
 (-22 7 0)		// 41
 (-22 3 $z)		// 42
 (-22 7 $z)		// 43
);

blocks
(
    hex (20 0 3 23 24 4 7 27) (40 260 1) simpleGrading (
			1 (
			(.2 .4 8)
			(.8 .6 1)
			)
			 1)
    hex (23 3 28 29 27 7 30 31) (40 40 1) simpleGrading (1 1 1)
    hex (3 32 33 28 7 34 35 30) (40 40 1) simpleGragind (1 1 1)
    hex (36 37 0 20 38 39 4 24) (40 40 1) simpleGrading ( 
                        1 (
                        (.8 .6 1)
                        (.2 .4 .125)
                        )
                         1)
    hex (37 40 41 0 39 42 43 4) (40 40 1) simpleGrading ( 
                        1 (
                        (.8 .6 1)
                        (.2 .4 .125)
                        )
                         1)
    hex (0 1 2 3 4 5 6 7) (750 260 1) simpleGrading (
                        1 (
                        (.2 .4 8)
                        (.8 .6 1)
			)
                         1)  
    hex (1 8 9 2 5 10 11 6) (375 260 1) simpleGrading (
                        1 (
                        (.2 .4 8)
                        (.8 .6 1)
			)
                         1) 
    hex (12 13 8 1 14 15 10 5) (375 135 1) simpleGrading (
			1 (
			(.8 .6 1)
			(.2 .4 .125)
			)
			 1)
    hex (8 16 17 9 10 18 19 11) (375 260 1) simpleGrading ( 
                        1 (
                        (.2 .4 8)
                        (.8 .6 1)
                        )
                         1) 
);

edges
(
);

boundary
(
    inlet
    {
        type patch;
        faces
        (
            (23 27 31 29)
	    (20 24 27 23)
	    (36 38 24 20)
            (29 28 30 31)
            (28 33 35 30)
            (36 37 39 38)
            (37 40 42 39)

        );
    }

    outlet
    {
        type patch;
        faces
        (
            (16 18 19 17)
	    (32 34 35 33) 
	    (40 42 43 41) 
        );
    
    }

    up_wall
    {
        type wall;
        faces
        (
         (7 3 2 6)
         (6 2 9 11)
         (11 9 17 19)
	 (3 32 34 7)
         );
    
    }

    down_wall
    {
        type wall;
        faces
        (
         (4 0 1 5)
         (10 8 16 18)
	 (0 41 43 4)
         );
     }

    cavity
    {
        type wall;
        faces
        (
         (14 12 1 5)
         (13 15 14 12)
         (15 13 8 10) 
         );
    
    
    }
);

mergePatchPairs
(
);


