/*--------------------------------*- C++ -*----------------------------------*\
| =========                 |                                                 |
| \\      /  F ield         | OpenFOAM: The Open Source CFD Toolbox           |
|  \\    /   O peration     | Version:  9                                     |
|   \\  /    A nd           | Web:      www.OpenFOAM.org                      |
|    \\/     M anipulation  |                                                 |
\*---------------------------------------------------------------------------*/
FoamFile
{
    format      ascii;
    class       dictionary;
    location    "constant";
    object      momentumTransport;
}
// * * * * * * * * * * * * * * * * * * * * * * * * * * * * * * * * * * * * * //

simulationType  RAS;
LES
{
    model           Smagorinsky;

    turbulence      on;
    printCoeffs     on;

    delta           cubeRootVol;

    cubeRootVolCoeffs
    {
	    deltaCoeff 1;
    }
}

RAS
{
    model           kOmegaSST;

    turbulence      on;

    printCoeffs     on;
}



// ************************************************************************* //
