FoamFile
{
    version     2.0;
    format      ascii;
    arch        "LSB;label=32;scalar=64";
    class       volScalarField;
    location    "0";
    object      nut;
}
// * * * * * * * * * * * * * * * * * * * * * * * * * * * * * * * * * * * * * //

dimensions      [0 2 -1 0 0 0 0];

internalField   uniform 2.15;

boundaryField
{

    Wall_pylon_cavity
    {
        type            nutkWallFunction;
        value           uniform 2.15;
    }
    side_wall
    {
        type            nutkWallFunction;
        value           uniform 2.15;
    }
    back_inlet
    {
        type            calculated;
        value           uniform 0;
    }
    front_inlet
    {
        type            calculated;
        value           uniform 0;
    }
    outlet
    {
        type            calculated;
        value           uniform 0;
    }
    upper_wall
    {
        type            nutkWallFunction;
        value           uniform 2.15;
    }
    wedge_up
    {
        type            nutkWallFunction;
        value           uniform 2.15;
    }
    wedge_lower
    {
        type            nutkWallFunction;
        value           uniform 2.15;
    }
    SYMMETRY
    {
        type            symmetry;
    }
}
